 Case_ID      ElastoDyn           ElastoDyn           ElastoDyn       ElastoDyn      ElastoDyn         Fst         Fst     Fst    Fst       Fst       Fst   InflowWind  InflowWind                                    ServoDyn                                    ServoDyn  ServoDyn 
               BlPitch1            BlPitch2            BlPitch3         GenDOF        RotSpeed      CompInflow  CompServo   DT   DT_Out  OutFileFmt   TMax  HWindSpeed   WindType                                   DLL_FileName                                   PCMode   VSContrl 
    0     1.5058525323662666  1.5058525323662666  1.5058525323662666     True    7.514186181824161      1           1      0.01   0.02       0       200.0      11          1       /Users/aoifework/Documents/OpenFAST-toolboxes/WEIS/local/lib/libdiscon.dylib     5         5     
